  
       XFOIL         Version 6.99
  
 Calculated polar for:                                                 
  
 1 1 Reynolds number fixed          Mach number fixed         
  
 xtrf =   1.000 (top)        1.000 (bottom)  
 Mach =   0.000     Re =     0.905 e 6     Ncrit =   9.000
  
   alpha    CL        CD       CDp       CM     Top_Xtr  Bot_Xtr
  ------ -------- --------- --------- -------- -------- --------
   0.000   0.3908   0.00649   0.00136  -0.0825   0.6620   0.4788
   1.000   0.4886   0.00552   0.00160  -0.0789   0.6170   0.9492
   2.000   0.6457   0.00599   0.00177  -0.0887   0.5567   1.0000
   3.000   0.7418   0.00659   0.00203  -0.0855   0.4859   1.0000
   4.000   0.8318   0.00769   0.00257  -0.0814   0.3718   1.0000
   5.000   0.9296   0.00857   0.00320  -0.0789   0.3229   1.0000
   6.000   1.0314   0.00927   0.00385  -0.0772   0.2955   1.0000
   7.000   1.1314   0.01012   0.00460  -0.0754   0.2572   1.0000
   8.000   1.2214   0.01167   0.00576  -0.0722   0.1742   1.0000
   9.000   1.2975   0.01406   0.00768  -0.0670   0.0934   1.0000
  10.000   1.3669   0.01635   0.00971  -0.0608   0.0486   1.0000
  11.000   1.4085   0.02011   0.01338  -0.0512   0.0139   1.0000
  12.000   1.4520   0.02409   0.01762  -0.0436   0.0115   1.0000
  13.000   1.4854   0.02934   0.02314  -0.0372   0.0100   1.0000
  14.000   1.4967   0.03742   0.03159  -0.0320   0.0090   1.0000
  15.000   1.5002   0.04756   0.04211  -0.0295   0.0083   1.0000
  16.000   1.4837   0.06172   0.05664  -0.0302   0.0078   1.0000
  17.000   1.4398   0.08154   0.07689  -0.0346   0.0075   1.0000
  18.000   1.3807   0.10507   0.10085  -0.0419   0.0072   1.0000
  19.000   1.3519   0.12489   0.12104  -0.0495   0.0070   1.0000
  20.000   1.3298   0.14402   0.14049  -0.0582   0.0068   1.0000
