  
       XFOIL         Version 6.99
  
 Calculated polar for:                                                 
  
 1 1 Reynolds number fixed          Mach number fixed         
  
 xtrf =   1.000 (top)        1.000 (bottom)  
 Mach =   0.000     Re =     0.105 e 6     Ncrit =   9.000
  
   alpha    CL        CD       CDp       CM     Top_Xtr  Bot_Xtr
  ------ -------- --------- --------- -------- -------- --------
   0.000   0.3857   0.01771   0.01078  -0.0930   0.8496   1.0000
   1.000   0.4982   0.01745   0.01015  -0.0914   0.8096   1.0000
   2.000   0.6145   0.01688   0.00930  -0.0898   0.7684   1.0000
   3.000   0.7194   0.01668   0.00892  -0.0862   0.7145   1.0000
   4.000   0.8243   0.01665   0.00867  -0.0826   0.6481   1.0000
   5.000   0.9234   0.01738   0.00908  -0.0788   0.5700   1.0000
   6.000   1.0191   0.01886   0.01034  -0.0753   0.5024   1.0000
   7.000   1.1093   0.02041   0.01179  -0.0712   0.4405   1.0000
   8.000   1.1969   0.02236   0.01385  -0.0671   0.3873   1.0000
   9.000   1.2743   0.02472   0.01637  -0.0616   0.3281   1.0000
  10.000   1.3214   0.02731   0.01909  -0.0518   0.2531   1.0000
  11.000   1.3443   0.03086   0.02269  -0.0399   0.1926   1.0000
  12.000   1.3658   0.03615   0.02812  -0.0311   0.1525   1.0000
  14.000   1.3203   0.05844   0.05098  -0.0209   0.0719   1.0000
  15.000   1.2989   0.07289   0.06568  -0.0199   0.0536   1.0000
  16.000   1.2901   0.08704   0.08024  -0.0207   0.0451   1.0000
  17.000   1.2923   0.10036   0.09386  -0.0211   0.0406   1.0000
  18.000   1.2320   0.12664   0.12114  -0.0335   0.0402   1.0000
