  
       XFOIL         Version 6.99
  
 Calculated polar for:                                                 
  
 1 1 Reynolds number fixed          Mach number fixed         
  
 xtrf =   1.000 (top)        1.000 (bottom)  
 Mach =   0.000     Re =     1.205 e 6     Ncrit =   9.000
  
   alpha    CL        CD       CDp       CM     Top_Xtr  Bot_Xtr
  ------ -------- --------- --------- -------- -------- --------
   0.000   0.3929   0.00638   0.00116  -0.0826   0.6362   0.3677
   1.000   0.4917   0.00529   0.00132  -0.0801   0.5892   0.8453
   2.000   0.6259   0.00560   0.00161  -0.0845   0.5273   0.9944
   3.000   0.7432   0.00631   0.00190  -0.0861   0.4413   1.0000
   4.000   0.8345   0.00734   0.00243  -0.0821   0.3420   1.0000
   5.000   0.9344   0.00803   0.00296  -0.0799   0.3069   1.0000
   6.000   1.0374   0.00865   0.00352  -0.0784   0.2799   1.0000
   7.000   1.1378   0.00950   0.00421  -0.0767   0.2356   1.0000
   8.000   1.2231   0.01144   0.00561  -0.0728   0.1352   1.0000
   9.000   1.3060   0.01340   0.00725  -0.0686   0.0785   1.0000
  10.000   1.3640   0.01649   0.00990  -0.0606   0.0160   1.0000
  11.000   1.4245   0.01903   0.01260  -0.0534   0.0117   1.0000
  12.000   1.4741   0.02242   0.01621  -0.0462   0.0097   1.0000
  13.000   1.5186   0.02656   0.02059  -0.0400   0.0085   1.0000
  14.000   1.5449   0.03279   0.02707  -0.0345   0.0076   1.0000
  15.000   1.5477   0.04227   0.03693  -0.0305   0.0070   1.0000
  16.000   1.5452   0.05384   0.04885  -0.0296   0.0066   1.0000
  17.000   1.5215   0.06975   0.06517  -0.0318   0.0062   1.0000
  18.000   1.4783   0.09009   0.08592  -0.0373   0.0060   1.0000
  19.000   1.4219   0.11388   0.11013  -0.0457   0.0058   1.0000
  20.000   1.3708   0.13781   0.13442  -0.0561   0.0057   1.0000
