  
       XFOIL         Version 6.99
  
 Calculated polar for:                                                 
  
 1 1 Reynolds number fixed          Mach number fixed         
  
 xtrf =   1.000 (top)        1.000 (bottom)  
 Mach =   0.000     Re =     0.604 e 6     Ncrit =   9.000
  
   alpha    CL        CD       CDp       CM     Top_Xtr  Bot_Xtr
  ------ -------- --------- --------- -------- -------- --------
   0.000   0.3819   0.00637   0.00183  -0.0810   0.6957   0.7631
   1.000   0.5271   0.00632   0.00202  -0.0870   0.6519   0.9941
   2.000   0.6433   0.00668   0.00208  -0.0881   0.6006   1.0000
   3.000   0.7394   0.00723   0.00232  -0.0848   0.5361   1.0000
   4.000   0.8313   0.00817   0.00281  -0.0809   0.4372   1.0000
   5.000   0.9236   0.00938   0.00357  -0.0775   0.3534   1.0000
   6.000   1.0220   0.01032   0.00441  -0.0752   0.3191   1.0000
   7.000   1.1206   0.01122   0.00529  -0.0732   0.2847   1.0000
   8.000   1.2153   0.01233   0.00630  -0.0707   0.2328   1.0000
   9.000   1.2881   0.01485   0.00824  -0.0651   0.1283   1.0000
  10.000   1.3527   0.01734   0.01051  -0.0582   0.0811   1.0000
  11.000   1.3884   0.02161   0.01440  -0.0484   0.0198   1.0000
  12.000   1.4238   0.02640   0.01948  -0.0406   0.0148   1.0000
  13.000   1.4474   0.03283   0.02627  -0.0343   0.0130   1.0000
  14.000   1.4366   0.04372   0.03759  -0.0297   0.0119   1.0000
  15.000   1.4304   0.05596   0.05025  -0.0289   0.0110   1.0000
  16.000   1.4061   0.07221   0.06692  -0.0313   0.0103   1.0000
  17.000   1.3707   0.09133   0.08641  -0.0362   0.0098   1.0000
  18.000   1.3412   0.10958   0.10497  -0.0410   0.0094   1.0000
  19.000   1.3267   0.12696   0.12273  -0.0478   0.0091   1.0000
  20.000   1.3146   0.14421   0.14035  -0.0557   0.0087   1.0000
