  
       XFOIL         Version 6.99
  
 Calculated polar for:                                                 
  
 1 1 Reynolds number fixed          Mach number fixed         
  
 xtrf =   1.000 (top)        1.000 (bottom)  
 Mach =   0.000     Re =     0.205 e 6     Ncrit =   9.000
  
   alpha    CL        CD       CDp       CM     Top_Xtr  Bot_Xtr
  ------ -------- --------- --------- -------- -------- --------
   0.000   0.4426   0.01000   0.00458  -0.0950   0.7929   1.0000
   1.000   0.5414   0.01012   0.00429  -0.0919   0.7513   1.0000
   2.000   0.6399   0.01039   0.00425  -0.0886   0.7052   1.0000
   3.000   0.7372   0.01078   0.00439  -0.0851   0.6496   1.0000
   4.000   0.8324   0.01139   0.00473  -0.0812   0.5771   1.0000
   5.000   0.9226   0.01254   0.00544  -0.0768   0.4878   1.0000
   6.000   1.0112   0.01398   0.00651  -0.0727   0.4139   1.0000
   7.000   1.1031   0.01553   0.00796  -0.0695   0.3678   1.0000
   8.000   1.1916   0.01711   0.00967  -0.0659   0.3257   1.0000
   9.000   1.2667   0.01872   0.01143  -0.0603   0.2696   1.0000
  10.000   1.3164   0.02125   0.01381  -0.0513   0.1815   1.0000
  11.000   1.3518   0.02557   0.01800  -0.0424   0.1291   1.0000
  12.000   1.3871   0.03052   0.02307  -0.0356   0.0914   1.0000
  13.000   1.3918   0.03904   0.03146  -0.0293   0.0372   1.0000
  14.000   1.3760   0.05109   0.04388  -0.0258   0.0291   1.0000
  15.000   1.3483   0.06658   0.05987  -0.0263   0.0261   1.0000
  16.000   1.3202   0.08382   0.07751  -0.0296   0.0239   1.0000
  17.000   1.3065   0.09885   0.09284  -0.0318   0.0224   1.0000
  18.000   1.3032   0.11307   0.10755  -0.0347   0.0213   1.0000
  19.000   1.2892   0.13029   0.12534  -0.0413   0.0206   1.0000
  20.000   1.2520   0.15448   0.15020  -0.0552   0.0203   1.0000
