  
       XFOIL         Version 6.99
  
 Calculated polar for:                                                 
  
 1 1 Reynolds number fixed          Mach number fixed         
  
 xtrf =   1.000 (top)        1.000 (bottom)  
 Mach =   0.000     Re =     0.405 e 6     Ncrit =   9.000
  
   alpha    CL        CD       CDp       CM     Top_Xtr  Bot_Xtr
  ------ -------- --------- --------- -------- -------- --------
   0.000   0.3871   0.00708   0.00263  -0.0815   0.7297   0.9471
   1.000   0.5436   0.00731   0.00252  -0.0908   0.6878   1.0000
   2.000   0.6421   0.00764   0.00256  -0.0879   0.6393   1.0000
   3.000   0.7384   0.00814   0.00278  -0.0846   0.5800   1.0000
   4.000   0.8317   0.00894   0.00324  -0.0808   0.4989   1.0000
   5.000   0.9204   0.01025   0.00402  -0.0766   0.3969   1.0000
   6.000   1.0147   0.01144   0.00501  -0.0736   0.3473   1.0000
   7.000   1.1101   0.01257   0.00613  -0.0711   0.3131   1.0000
   8.000   1.2023   0.01374   0.00730  -0.0681   0.2690   1.0000
   9.000   1.2816   0.01557   0.00884  -0.0634   0.1832   1.0000
  10.000   1.3363   0.01861   0.01154  -0.0553   0.1106   1.0000
  11.000   1.3884   0.02190   0.01473  -0.0479   0.0698   1.0000
  12.000   1.4063   0.02805   0.02065  -0.0387   0.0212   1.0000
  13.000   1.4213   0.03547   0.02847  -0.0323   0.0173   1.0000
  14.000   1.4105   0.04675   0.04019  -0.0285   0.0156   1.0000
  15.000   1.3828   0.06196   0.05587  -0.0285   0.0148   1.0000
  16.000   1.3607   0.07822   0.07256  -0.0311   0.0140   1.0000
  17.000   1.3394   0.09523   0.08993  -0.0352   0.0132   1.0000
  18.000   1.3283   0.11001   0.10492  -0.0383   0.0123   1.0000
  19.000   1.3208   0.12521   0.12052  -0.0430   0.0118   1.0000
  20.000   1.3043   0.14374   0.13956  -0.0522   0.0115   1.0000
