  
       XFOIL         Version 6.99
  
 Calculated polar for:                                                 
  
 1 1 Reynolds number fixed          Mach number fixed         
  
 xtrf =   1.000 (top)        1.000 (bottom)  
 Mach =   0.000     Re =     0.705 e 6     Ncrit =   9.000
  
   alpha    CL        CD       CDp       CM     Top_Xtr  Bot_Xtr
  ------ -------- --------- --------- -------- -------- --------
   0.000   0.3869   0.00642   0.00161  -0.0821   0.6830   0.6444
   1.000   0.5071   0.00599   0.00186  -0.0827   0.6390   0.9836
   2.000   0.6440   0.00639   0.00194  -0.0883   0.5844   1.0000
   3.000   0.7403   0.00695   0.00220  -0.0851   0.5178   1.0000
   4.000   0.8311   0.00798   0.00271  -0.0810   0.4095   1.0000
   5.000   0.9258   0.00906   0.00342  -0.0780   0.3401   1.0000
   6.000   1.0257   0.00989   0.00418  -0.0760   0.3095   1.0000
   7.000   1.1244   0.01080   0.00502  -0.0740   0.2739   1.0000
   8.000   1.2189   0.01197   0.00602  -0.0715   0.2149   1.0000
   9.000   1.2917   0.01454   0.00802  -0.0658   0.1133   1.0000
  10.000   1.3599   0.01683   0.01012  -0.0595   0.0712   1.0000
  11.000   1.3953   0.02108   0.01405  -0.0494   0.0169   1.0000
  12.000   1.4362   0.02537   0.01863  -0.0419   0.0134   1.0000
  13.000   1.4538   0.03217   0.02579  -0.0348   0.0118   1.0000
  14.000   1.4671   0.04048   0.03446  -0.0307   0.0106   1.0000
  15.000   1.4504   0.05345   0.04783  -0.0291   0.0098   1.0000
  16.000   1.4141   0.07106   0.06589  -0.0314   0.0093   1.0000
  17.000   1.3874   0.08905   0.08431  -0.0360   0.0089   1.0000
  18.000   1.3577   0.10831   0.10395  -0.0421   0.0085   1.0000
  19.000   1.3345   0.12700   0.12297  -0.0493   0.0082   1.0000
  20.000   1.3193   0.14477   0.14102  -0.0575   0.0078   1.0000
