  
       XFOIL         Version 6.99
  
 Calculated polar for:                                                 
  
 1 1 Reynolds number fixed          Mach number fixed         
  
 xtrf =   1.000 (top)        1.000 (bottom)  
 Mach =   0.000     Re =     0.605 e 6     Ncrit =   9.000
  
   alpha    CL        CD       CDp       CM     Top_Xtr  Bot_Xtr
  ------ -------- --------- --------- -------- -------- --------
   0.000   0.3819   0.00637   0.00183  -0.0811   0.6956   0.7620
   1.000   0.5268   0.00632   0.00202  -0.0869   0.6518   0.9940
   2.000   0.6433   0.00667   0.00207  -0.0881   0.6005   1.0000
   3.000   0.7394   0.00723   0.00232  -0.0848   0.5360   1.0000
   4.000   0.8313   0.00816   0.00281  -0.0809   0.4369   1.0000
   5.000   0.9236   0.00938   0.00357  -0.0775   0.3532   1.0000
   6.000   1.0220   0.01031   0.00440  -0.0753   0.3190   1.0000
   7.000   1.1207   0.01122   0.00528  -0.0732   0.2846   1.0000
   8.000   1.2154   0.01233   0.00629  -0.0707   0.2326   1.0000
   9.000   1.2881   0.01485   0.00824  -0.0651   0.1281   1.0000
  10.000   1.3527   0.01734   0.01051  -0.0582   0.0810   1.0000
  11.000   1.3884   0.02161   0.01440  -0.0484   0.0197   1.0000
  12.000   1.4239   0.02638   0.01947  -0.0406   0.0148   1.0000
  13.000   1.4475   0.03282   0.02626  -0.0343   0.0130   1.0000
  14.000   1.4370   0.04368   0.03755  -0.0297   0.0119   1.0000
  15.000   1.4307   0.05592   0.05021  -0.0289   0.0109   1.0000
  16.000   1.4064   0.07218   0.06688  -0.0313   0.0103   1.0000
  17.000   1.3707   0.09133   0.08641  -0.0362   0.0098   1.0000
  18.000   1.3413   0.10960   0.10499  -0.0411   0.0094   1.0000
  19.000   1.3267   0.12698   0.12275  -0.0478   0.0090   1.0000
  20.000   1.3147   0.14422   0.14036  -0.0557   0.0087   1.0000
