  
       XFOIL         Version 6.99
  
 Calculated polar for:                                                 
  
 1 1 Reynolds number fixed          Mach number fixed         
  
 xtrf =   1.000 (top)        1.000 (bottom)  
 Mach =   0.000     Re =     1.404 e 6     Ncrit =   9.000
  
   alpha    CL        CD       CDp       CM     Top_Xtr  Bot_Xtr
  ------ -------- --------- --------- -------- -------- --------
   0.000   0.3934   0.00628   0.00108  -0.0827   0.6218   0.3309
   1.000   0.4964   0.00538   0.00120  -0.0812   0.5733   0.7544
   2.000   0.6142   0.00540   0.00152  -0.0819   0.5118   0.9883
   3.000   0.7435   0.00624   0.00187  -0.0862   0.4100   1.0000
   4.000   0.8364   0.00714   0.00236  -0.0826   0.3292   1.0000
   5.000   0.9373   0.00773   0.00283  -0.0805   0.3000   1.0000
   6.000   1.0402   0.00836   0.00337  -0.0790   0.2713   1.0000
   7.000   1.1403   0.00925   0.00406  -0.0772   0.2220   1.0000
   8.000   1.2242   0.01132   0.00554  -0.0731   0.1179   1.0000
   9.000   1.3101   0.01309   0.00704  -0.0694   0.0712   1.0000
  10.000   1.3715   0.01604   0.00963  -0.0618   0.0142   1.0000
  11.000   1.4356   0.01831   0.01203  -0.0550   0.0109   1.0000
  12.000   1.4890   0.02137   0.01528  -0.0480   0.0091   1.0000
  13.000   1.5372   0.02510   0.01919  -0.0418   0.0078   1.0000
  14.000   1.5635   0.03112   0.02550  -0.0357   0.0070   1.0000
  15.000   1.5855   0.03836   0.03303  -0.0317   0.0064   1.0000
  16.000   1.5902   0.04842   0.04340  -0.0297   0.0060   1.0000
  17.000   1.5646   0.06378   0.05915  -0.0307   0.0056   1.0000
  18.000   1.4913   0.08812   0.08401  -0.0369   0.0054   1.0000
  19.000   1.4375   0.11135   0.10766  -0.0449   0.0053   1.0000
  20.000   1.3875   0.13493   0.13162  -0.0549   0.0052   1.0000
