  
       XFOIL         Version 6.99
  
 Calculated polar for:                                                 
  
 1 1 Reynolds number fixed          Mach number fixed         
  
 xtrf =   1.000 (top)        1.000 (bottom)  
 Mach =   0.000     Re =     0.004 e 6     Ncrit =   9.000
  
   alpha    CL        CD       CDp       CM     Top_Xtr  Bot_Xtr
  ------ -------- --------- --------- -------- -------- --------
   0.000  -0.0024   0.06446   0.02925  -0.0316   1.0000   1.0000
   1.000   0.0637   0.06659   0.02931  -0.0299   1.0000   1.0000
   2.000   0.1274   0.06962   0.03090  -0.0285   1.0000   1.0000
   3.000   0.1879   0.07360   0.03396  -0.0277   1.0000   1.0000
   4.000   0.2444   0.07860   0.03845  -0.0275   1.0000   1.0000
   5.000   0.2966   0.08464   0.04432  -0.0281   1.0000   1.0000
   6.000   0.3450   0.09171   0.05151  -0.0294   1.0000   1.0000
   7.000   0.3902   0.09977   0.05991  -0.0314   1.0000   1.0000
   8.000   0.4329   0.10868   0.06936  -0.0341   1.0000   1.0000
   9.000   0.4735   0.11834   0.07973  -0.0374   1.0000   1.0000
  10.000   0.5124   0.12868   0.09086  -0.0414   1.0000   1.0000
  11.000   0.5498   0.13962   0.10275  -0.0461   1.0000   1.0000
  12.000   0.5861   0.15111   0.11522  -0.0516   1.0000   1.0000
  13.000   0.6219   0.16305   0.12810  -0.0577   1.0000   1.0000
  14.000   0.6577   0.17536   0.14139  -0.0645   1.0000   1.0000
  15.000   0.6938   0.18797   0.15491  -0.0717   1.0000   1.0000
  16.000   0.7303   0.20086   0.16876  -0.0794   1.0000   1.0000
  17.000   0.7670   0.21418   0.18304  -0.0874   1.0000   1.0000
  18.000   0.8037   0.22793   0.19767  -0.0958   1.0000   1.0000
  19.000   0.8403   0.24211   0.21274  -0.1046   1.0000   1.0000
  20.000   0.8768   0.25671   0.22810  -0.1136   1.0000   1.0000
