  
       XFOIL         Version 6.99
  
 Calculated polar for:                                                 
  
 1 1 Reynolds number fixed          Mach number fixed         
  
 xtrf =   1.000 (top)        1.000 (bottom)  
 Mach =   0.000     Re =     0.005 e 6     Ncrit =   9.000
  
   alpha    CL        CD       CDp       CM     Top_Xtr  Bot_Xtr
  ------ -------- --------- --------- -------- -------- --------
   0.000  -0.0035   0.05869   0.02758  -0.0316   1.0000   1.0000
   1.000   0.0635   0.06096   0.02790  -0.0300   1.0000   1.0000
   2.000   0.1279   0.06414   0.02975  -0.0289   1.0000   1.0000
   3.000   0.1885   0.06829   0.03307  -0.0283   1.0000   1.0000
   4.000   0.2448   0.07349   0.03783  -0.0284   1.0000   1.0000
   5.000   0.2966   0.07979   0.04398  -0.0293   1.0000   1.0000
   6.000   0.3446   0.08716   0.05146  -0.0309   1.0000   1.0000
   7.000   0.3895   0.09548   0.06009  -0.0332   1.0000   1.0000
   8.000   0.4321   0.10464   0.06974  -0.0360   1.0000   1.0000
   9.000   0.4726   0.11455   0.08031  -0.0395   1.0000   1.0000
  10.000   0.5112   0.12514   0.09163  -0.0436   1.0000   1.0000
  11.000   0.5482   0.13637   0.10372  -0.0483   1.0000   1.0000
  12.000   0.5841   0.14815   0.11640  -0.0539   1.0000   1.0000
  13.000   0.6195   0.16047   0.12957  -0.0601   1.0000   1.0000
  14.000   0.6552   0.17321   0.14319  -0.0668   1.0000   1.0000
  15.000   0.6913   0.18624   0.15704  -0.0740   1.0000   1.0000
  16.000   0.7280   0.19960   0.17126  -0.0816   1.0000   1.0000
  17.000   0.7649   0.21331   0.18579  -0.0896   1.0000   1.0000
  18.000   0.8019   0.22742   0.20075  -0.0980   1.0000   1.0000
  19.000   0.8388   0.24201   0.21609  -0.1068   1.0000   1.0000
  20.000   0.8755   0.25707   0.23189  -0.1158   1.0000   1.0000
