  
       XFOIL         Version 6.99
  
 Calculated polar for:                                                 
  
 1 1 Reynolds number fixed          Mach number fixed         
  
 xtrf =   1.000 (top)        1.000 (bottom)  
 Mach =   0.000     Re =     0.404 e 6     Ncrit =   9.000
  
   alpha    CL        CD       CDp       CM     Top_Xtr  Bot_Xtr
  ------ -------- --------- --------- -------- -------- --------
   0.000   0.3873   0.00709   0.00263  -0.0815   0.7300   0.9476
   1.000   0.5436   0.00732   0.00252  -0.0908   0.6881   1.0000
   2.000   0.6421   0.00764   0.00257  -0.0879   0.6396   1.0000
   3.000   0.7384   0.00814   0.00279  -0.0846   0.5803   1.0000
   4.000   0.8317   0.00894   0.00324  -0.0808   0.4992   1.0000
   5.000   0.9203   0.01025   0.00402  -0.0765   0.3972   1.0000
   6.000   1.0146   0.01145   0.00502  -0.0736   0.3475   1.0000
   7.000   1.1101   0.01258   0.00613  -0.0710   0.3133   1.0000
   8.000   1.2022   0.01375   0.00730  -0.0681   0.2692   1.0000
   9.000   1.2816   0.01558   0.00885  -0.0634   0.1837   1.0000
  10.000   1.3362   0.01862   0.01155  -0.0553   0.1108   1.0000
  11.000   1.3884   0.02191   0.01474  -0.0479   0.0700   1.0000
  12.000   1.4062   0.02806   0.02066  -0.0386   0.0212   1.0000
  13.000   1.4211   0.03549   0.02848  -0.0323   0.0174   1.0000
  14.000   1.4107   0.04673   0.04017  -0.0285   0.0157   1.0000
  15.000   1.3823   0.06202   0.05592  -0.0285   0.0148   1.0000
  16.000   1.3604   0.07826   0.07259  -0.0311   0.0141   1.0000
  17.000   1.3392   0.09524   0.08995  -0.0352   0.0132   1.0000
  18.000   1.3279   0.11016   0.10507  -0.0384   0.0123   1.0000
  19.000   1.3210   0.12511   0.12041  -0.0429   0.0118   1.0000
  20.000   1.3044   0.14368   0.13950  -0.0521   0.0116   1.0000
