  
       XFOIL         Version 6.99
  
 Calculated polar for:                                                 
  
 1 1 Reynolds number fixed          Mach number fixed         
  
 xtrf =   1.000 (top)        1.000 (bottom)  
 Mach =   0.000     Re =     0.505 e 6     Ncrit =   9.000
  
   alpha    CL        CD       CDp       CM     Top_Xtr  Bot_Xtr
  ------ -------- --------- --------- -------- -------- --------
   0.000   0.3761   0.00651   0.00217  -0.0795   0.7107   0.8746
   1.000   0.5440   0.00673   0.00221  -0.0907   0.6674   1.0000
   2.000   0.6427   0.00706   0.00227  -0.0880   0.6183   1.0000
   3.000   0.7389   0.00759   0.00250  -0.0847   0.5560   1.0000
   4.000   0.8316   0.00846   0.00297  -0.0809   0.4673   1.0000
   5.000   0.9220   0.00974   0.00375  -0.0770   0.3712   1.0000
   6.000   1.0187   0.01079   0.00466  -0.0745   0.3312   1.0000
   7.000   1.1157   0.01180   0.00565  -0.0722   0.2971   1.0000
   8.000   1.2098   0.01289   0.00670  -0.0696   0.2498   1.0000
   9.000   1.2847   0.01518   0.00849  -0.0643   0.1492   1.0000
  10.000   1.3448   0.01792   0.01097  -0.0569   0.0932   1.0000
  11.000   1.3909   0.02157   0.01432  -0.0486   0.0348   1.0000
  12.000   1.4167   0.02706   0.01993  -0.0398   0.0172   1.0000
  13.000   1.4300   0.03451   0.02776  -0.0331   0.0147   1.0000
  14.000   1.4314   0.04438   0.03807  -0.0293   0.0134   1.0000
  15.000   1.4058   0.05904   0.05314  -0.0288   0.0125   1.0000
  16.000   1.3723   0.07660   0.07113  -0.0315   0.0118   1.0000
  17.000   1.3520   0.09367   0.08862  -0.0358   0.0112   1.0000
  18.000   1.3334   0.11091   0.10621  -0.0411   0.0107   1.0000
  19.000   1.3218   0.12730   0.12290  -0.0470   0.0102   1.0000
  20.000   1.3202   0.14132   0.13714  -0.0523   0.0097   1.0000
