  
       XFOIL         Version 6.99
  
 Calculated polar for:                                                 
  
 1 1 Reynolds number fixed          Mach number fixed         
  
 xtrf =   1.000 (top)        1.000 (bottom)  
 Mach =   0.000     Re =     1.204 e 6     Ncrit =   9.000
  
   alpha    CL        CD       CDp       CM     Top_Xtr  Bot_Xtr
  ------ -------- --------- --------- -------- -------- --------
   0.000   0.3929   0.00638   0.00116  -0.0826   0.6363   0.3679
   1.000   0.4916   0.00529   0.00132  -0.0801   0.5893   0.8458
   2.000   0.6260   0.00560   0.00161  -0.0845   0.5274   0.9944
   3.000   0.7432   0.00631   0.00190  -0.0861   0.4415   1.0000
   4.000   0.8345   0.00734   0.00243  -0.0821   0.3421   1.0000
   5.000   0.9344   0.00803   0.00296  -0.0799   0.3070   1.0000
   6.000   1.0374   0.00865   0.00352  -0.0784   0.2800   1.0000
   7.000   1.1378   0.00950   0.00421  -0.0767   0.2356   1.0000
   8.000   1.2231   0.01144   0.00561  -0.0728   0.1353   1.0000
   9.000   1.3060   0.01340   0.00725  -0.0686   0.0786   1.0000
  10.000   1.3640   0.01649   0.00990  -0.0606   0.0160   1.0000
  11.000   1.4244   0.01903   0.01261  -0.0534   0.0117   1.0000
  12.000   1.4741   0.02242   0.01621  -0.0462   0.0097   1.0000
  13.000   1.5185   0.02657   0.02060  -0.0400   0.0085   1.0000
  14.000   1.5449   0.03279   0.02708  -0.0345   0.0076   1.0000
  15.000   1.5474   0.04229   0.03695  -0.0305   0.0070   1.0000
  16.000   1.5449   0.05387   0.04888  -0.0296   0.0066   1.0000
  17.000   1.5212   0.06979   0.06521  -0.0318   0.0062   1.0000
  18.000   1.4780   0.09014   0.08597  -0.0373   0.0060   1.0000
  19.000   1.4217   0.11392   0.11017  -0.0457   0.0059   1.0000
  20.000   1.3707   0.13783   0.13443  -0.0561   0.0057   1.0000
