  
       XFOIL         Version 6.99
  
 Calculated polar for:                                                 
  
 1 1 Reynolds number fixed          Mach number fixed         
  
 xtrf =   1.000 (top)        1.000 (bottom)  
 Mach =   0.000     Re =     1.105 e 6     Ncrit =   9.000
  
   alpha    CL        CD       CDp       CM     Top_Xtr  Bot_Xtr
  ------ -------- --------- --------- -------- -------- --------
   0.000   0.3923   0.00643   0.00121  -0.0826   0.6444   0.3944
   1.000   0.4886   0.00531   0.00140  -0.0793   0.5981   0.8863
   2.000   0.6354   0.00572   0.00166  -0.0865   0.5358   0.9970
   3.000   0.7429   0.00637   0.00193  -0.0859   0.4566   1.0000
   4.000   0.8334   0.00746   0.00248  -0.0819   0.3500   1.0000
   5.000   0.9332   0.00816   0.00302  -0.0796   0.3119   1.0000
   6.000   1.0356   0.00883   0.00362  -0.0781   0.2849   1.0000
   7.000   1.1359   0.00968   0.00432  -0.0763   0.2425   1.0000
   8.000   1.2222   0.01153   0.00566  -0.0725   0.1456   1.0000
   9.000   1.3031   0.01362   0.00739  -0.0681   0.0822   1.0000
  10.000   1.3612   0.01666   0.00999  -0.0601   0.0179   1.0000
  11.000   1.4171   0.01951   0.01300  -0.0524   0.0120   1.0000
  12.000   1.4702   0.02271   0.01641  -0.0457   0.0103   1.0000
  13.000   1.5062   0.02757   0.02155  -0.0389   0.0089   1.0000
  14.000   1.5349   0.03373   0.02797  -0.0339   0.0080   1.0000
  15.000   1.5225   0.04501   0.03966  -0.0300   0.0073   1.0000
  16.000   1.5173   0.05737   0.05239  -0.0298   0.0069   1.0000
  17.000   1.4896   0.07431   0.06975  -0.0329   0.0066   1.0000
  18.000   1.4447   0.09534   0.09121  -0.0390   0.0064   1.0000
  19.000   1.3948   0.11833   0.11460  -0.0474   0.0062   1.0000
  20.000   1.3556   0.14035   0.13695  -0.0572   0.0060   1.0000
