  
       XFOIL         Version 6.99
  
 Calculated polar for:                                                 
  
 1 1 Reynolds number fixed          Mach number fixed         
  
 xtrf =   1.000 (top)        1.000 (bottom)  
 Mach =   0.000     Re =     1.005 e 6     Ncrit =   9.000
  
   alpha    CL        CD       CDp       CM     Top_Xtr  Bot_Xtr
  ------ -------- --------- --------- -------- -------- --------
   0.000   0.3919   0.00645   0.00128  -0.0826   0.6529   0.4307
   1.000   0.4867   0.00537   0.00150  -0.0786   0.6074   0.9215
   2.000   0.6462   0.00585   0.00171  -0.0889   0.5450   0.9999
   3.000   0.7424   0.00646   0.00198  -0.0857   0.4713   1.0000
   4.000   0.8327   0.00756   0.00252  -0.0816   0.3598   1.0000
   5.000   0.9315   0.00835   0.00310  -0.0793   0.3171   1.0000
   6.000   1.0331   0.00907   0.00374  -0.0776   0.2893   1.0000
   7.000   1.1341   0.00987   0.00444  -0.0759   0.2496   1.0000
   8.000   1.2217   0.01160   0.00571  -0.0724   0.1583   1.0000
   9.000   1.3009   0.01380   0.00751  -0.0676   0.0878   1.0000
  10.000   1.3613   0.01666   0.00994  -0.0601   0.0244   1.0000
  11.000   1.4137   0.01975   0.01313  -0.0519   0.0130   1.0000
  12.000   1.4622   0.02331   0.01694  -0.0447   0.0109   1.0000
  13.000   1.4896   0.02894   0.02287  -0.0376   0.0093   1.0000
  14.000   1.5177   0.03536   0.02958  -0.0329   0.0084   1.0000
  15.000   1.5237   0.04491   0.03946  -0.0299   0.0078   1.0000
  16.000   1.4834   0.06176   0.05677  -0.0304   0.0073   1.0000
  17.000   1.4540   0.07945   0.07488  -0.0341   0.0070   1.0000
  18.000   1.4131   0.10024   0.09609  -0.0405   0.0068   1.0000
  19.000   1.3715   0.12201   0.11825  -0.0487   0.0066   1.0000
  20.000   1.3407   0.14266   0.13922  -0.0580   0.0064   1.0000
