  
       XFOIL         Version 6.99
  
 Calculated polar for:                                                 
  
 1 1 Reynolds number fixed          Mach number fixed         
  
 xtrf =   1.000 (top)        1.000 (bottom)  
 Mach =   0.000     Re =     0.305 e 6     Ncrit =   9.000
  
   alpha    CL        CD       CDp       CM     Top_Xtr  Bot_Xtr
  ------ -------- --------- --------- -------- -------- --------
   0.000   0.4268   0.00808   0.00325  -0.0900   0.7562   0.9913
   1.000   0.5431   0.00824   0.00306  -0.0910   0.7134   1.0000
   2.000   0.6414   0.00856   0.00308  -0.0880   0.6658   1.0000
   3.000   0.7382   0.00903   0.00328  -0.0846   0.6096   1.0000
   4.000   0.8319   0.00976   0.00370  -0.0808   0.5333   1.0000
   5.000   0.9205   0.01099   0.00446  -0.0764   0.4345   1.0000
   6.000   1.0115   0.01236   0.00552  -0.0729   0.3717   1.0000
   7.000   1.1046   0.01372   0.00682  -0.0699   0.3346   1.0000
   8.000   1.1939   0.01503   0.00818  -0.0665   0.2917   1.0000
   9.000   1.2751   0.01651   0.00966  -0.0619   0.2261   1.0000
  10.000   1.3253   0.01965   0.01240  -0.0533   0.1361   1.0000
  11.000   1.3740   0.02320   0.01592  -0.0457   0.0957   1.0000
  12.000   1.4010   0.02878   0.02121  -0.0378   0.0343   1.0000
  13.000   1.4059   0.03717   0.02983  -0.0310   0.0225   1.0000
  14.000   1.3971   0.04840   0.04153  -0.0276   0.0195   1.0000
  15.000   1.3670   0.06407   0.05768  -0.0279   0.0183   1.0000
  16.000   1.3430   0.08067   0.07474  -0.0307   0.0174   1.0000
  17.000   1.3250   0.09692   0.09135  -0.0342   0.0165   1.0000
  18.000   1.3262   0.10859   0.10313  -0.0343   0.0151   1.0000
  19.000   1.3111   0.12630   0.12141  -0.0417   0.0147   1.0000
  20.000   1.2894   0.14616   0.14186  -0.0519   0.0144   1.0000
