  
       XFOIL         Version 6.99
  
 Calculated polar for:                                                 
  
 1 1 Reynolds number fixed          Mach number fixed         
  
 xtrf =   1.000 (top)        1.000 (bottom)  
 Mach =   0.000     Re =     1.004 e 6     Ncrit =   9.000
  
   alpha    CL        CD       CDp       CM     Top_Xtr  Bot_Xtr
  ------ -------- --------- --------- -------- -------- --------
   0.000   0.3919   0.00645   0.00128  -0.0826   0.6530   0.4311
   1.000   0.4867   0.00538   0.00150  -0.0786   0.6075   0.9218
   2.000   0.6463   0.00585   0.00171  -0.0889   0.5451   0.9999
   3.000   0.7424   0.00647   0.00198  -0.0857   0.4714   1.0000
   4.000   0.8327   0.00757   0.00252  -0.0816   0.3599   1.0000
   5.000   0.9315   0.00835   0.00310  -0.0793   0.3172   1.0000
   6.000   1.0331   0.00908   0.00374  -0.0776   0.2893   1.0000
   7.000   1.1341   0.00987   0.00444  -0.0759   0.2496   1.0000
   8.000   1.2217   0.01161   0.00571  -0.0724   0.1584   1.0000
   9.000   1.3008   0.01380   0.00751  -0.0676   0.0879   1.0000
  10.000   1.3614   0.01666   0.00993  -0.0601   0.0246   1.0000
  11.000   1.4136   0.01975   0.01313  -0.0519   0.0130   1.0000
  12.000   1.4621   0.02332   0.01695  -0.0447   0.0109   1.0000
  13.000   1.4894   0.02896   0.02289  -0.0375   0.0094   1.0000
  14.000   1.5175   0.03538   0.02959  -0.0329   0.0084   1.0000
  15.000   1.5235   0.04493   0.03948  -0.0299   0.0078   1.0000
  16.000   1.4837   0.06172   0.05673  -0.0304   0.0073   1.0000
  17.000   1.4536   0.07950   0.07494  -0.0341   0.0070   1.0000
  18.000   1.4128   0.10029   0.09614  -0.0406   0.0068   1.0000
  19.000   1.3713   0.12204   0.11828  -0.0487   0.0066   1.0000
  20.000   1.3406   0.14267   0.13924  -0.0580   0.0064   1.0000
