  
       XFOIL         Version 6.99
  
 Calculated polar for:                                                 
  
 1 1 Reynolds number fixed          Mach number fixed         
  
 xtrf =   1.000 (top)        1.000 (bottom)  
 Mach =   0.000     Re =     0.204 e 6     Ncrit =   9.000
  
   alpha    CL        CD       CDp       CM     Top_Xtr  Bot_Xtr
  ------ -------- --------- --------- -------- -------- --------
   0.000   0.4425   0.01003   0.00461  -0.0951   0.7934   1.0000
   1.000   0.5414   0.01015   0.00431  -0.0919   0.7519   1.0000
   2.000   0.6400   0.01042   0.00427  -0.0886   0.7058   1.0000
   3.000   0.7372   0.01081   0.00441  -0.0851   0.6500   1.0000
   4.000   0.8324   0.01141   0.00474  -0.0812   0.5777   1.0000
   5.000   0.9226   0.01256   0.00545  -0.0768   0.4885   1.0000
   6.000   1.0113   0.01399   0.00653  -0.0727   0.4144   1.0000
   7.000   1.1031   0.01555   0.00798  -0.0695   0.3682   1.0000
   8.000   1.1916   0.01714   0.00969  -0.0659   0.3261   1.0000
   9.000   1.2666   0.01876   0.01145  -0.0603   0.2700   1.0000
  10.000   1.3163   0.02127   0.01383  -0.0513   0.1821   1.0000
  11.000   1.3514   0.02561   0.01803  -0.0423   0.1295   1.0000
  12.000   1.3863   0.03059   0.02313  -0.0356   0.0920   1.0000
  13.000   1.3916   0.03907   0.03149  -0.0292   0.0375   1.0000
  14.000   1.3759   0.05110   0.04389  -0.0258   0.0292   1.0000
  15.000   1.3477   0.06666   0.05995  -0.0263   0.0263   1.0000
  16.000   1.3202   0.08382   0.07751  -0.0296   0.0240   1.0000
  17.000   1.3064   0.09883   0.09281  -0.0317   0.0225   1.0000
  18.000   1.3029   0.11308   0.10756  -0.0347   0.0214   1.0000
  19.000   1.2883   0.13047   0.12552  -0.0413   0.0207   1.0000
  20.000   1.2487   0.15529   0.15104  -0.0557   0.0205   1.0000
