  
       XFOIL         Version 6.99
  
 Calculated polar for: NACA2412                                        
  
 1 1 Reynolds number fixed          Mach number fixed         
  
 xtrf =   1.000 (top)        1.000 (bottom)  
 Mach =   0.000     Re =     1.404 e 6     Ncrit =   9.000
  
   alpha    CL        CD       CDp       CM     Top_Xtr  Bot_Xtr
  ------ -------- --------- --------- -------- -------- --------
   0.000   0.2454   0.00555   0.00102  -0.0526   0.6192   0.5780
   1.000   0.3528   0.00536   0.00117  -0.0515   0.5446   0.7736
   2.000   0.4573   0.00539   0.00143  -0.0493   0.4917   0.9223
   3.000   0.5746   0.00586   0.00174  -0.0501   0.4270   0.9848
   4.000   0.7152   0.00670   0.00216  -0.0567   0.3307   0.9993
   5.000   0.8115   0.00770   0.00274  -0.0539   0.2359   1.0000
   6.000   0.9046   0.00899   0.00358  -0.0505   0.1433   1.0000
   7.000   0.9999   0.01046   0.00467  -0.0478   0.0754   1.0000
   8.000   1.0969   0.01181   0.00586  -0.0455   0.0472   1.0000
   9.000   1.1932   0.01311   0.00715  -0.0432   0.0382   1.0000
  10.000   1.2856   0.01455   0.00865  -0.0404   0.0332   1.0000
  11.000   1.3703   0.01630   0.01047  -0.0366   0.0288   1.0000
  12.000   1.4495   0.01785   0.01212  -0.0320   0.0256   1.0000
  13.000   1.5137   0.01994   0.01434  -0.0256   0.0221   1.0000
  14.000   1.5693   0.02278   0.01731  -0.0194   0.0185   1.0000
  15.000   1.6117   0.02696   0.02164  -0.0136   0.0152   1.0000
  16.000   1.6351   0.03351   0.02842  -0.0090   0.0128   1.0000
  17.000   1.6471   0.04234   0.03756  -0.0070   0.0115   1.0000
  18.000   1.6219   0.05706   0.05267  -0.0086   0.0103   1.0000
  19.000   1.5914   0.07431   0.07034  -0.0135   0.0098   1.0000
  20.000   1.5301   0.09747   0.09395  -0.0221   0.0094   1.0000
