  
       XFOIL         Version 6.99
  
 Calculated polar for: NACA2412                                        
  
 1 1 Reynolds number fixed          Mach number fixed         
  
 xtrf =   1.000 (top)        1.000 (bottom)  
 Mach =   0.000     Re =     0.305 e 6     Ncrit =   9.000
  
   alpha    CL        CD       CDp       CM     Top_Xtr  Bot_Xtr
  ------ -------- --------- --------- -------- -------- --------
   0.000   0.2386   0.00777   0.00321  -0.0503   0.7928   0.9399
   1.000   0.4025   0.00812   0.00317  -0.0602   0.7232   0.9925
   2.000   0.5180   0.00844   0.00309  -0.0612   0.6453   1.0000
   3.000   0.6124   0.00900   0.00332  -0.0577   0.5766   1.0000
   4.000   0.7061   0.00974   0.00377  -0.0539   0.5068   1.0000
   5.000   0.8000   0.01059   0.00440  -0.0503   0.4287   1.0000
   6.000   0.8923   0.01178   0.00529  -0.0467   0.3307   1.0000
   7.000   0.9774   0.01382   0.00678  -0.0425   0.2023   1.0000
   8.000   1.0506   0.01701   0.00933  -0.0369   0.0945   1.0000
   9.000   1.1190   0.02020   0.01251  -0.0305   0.0700   1.0000
  10.000   1.1782   0.02346   0.01592  -0.0231   0.0596   1.0000
  11.000   1.2324   0.02709   0.01982  -0.0161   0.0521   1.0000
  12.000   1.2783   0.03187   0.02489  -0.0097   0.0458   1.0000
  13.000   1.3148   0.03778   0.03109  -0.0042   0.0402   1.0000
  14.000   1.3400   0.04471   0.03834  -0.0005   0.0355   1.0000
  15.000   1.3420   0.05510   0.04935   0.0013   0.0317   1.0000
  16.000   1.3378   0.06717   0.06172   0.0011   0.0288   1.0000
  17.000   1.2901   0.08733   0.08275  -0.0068   0.0272   1.0000
  18.000   1.2262   0.11379   0.10993  -0.0205   0.0260   1.0000
  20.000   0.6401   0.20746   0.20472  -0.0529   0.0366   1.0000
