  
       XFOIL         Version 6.99
  
 Calculated polar for: NACA2412                                        
  
 1 1 Reynolds number fixed          Mach number fixed         
  
 xtrf =   1.000 (top)        1.000 (bottom)  
 Mach =   0.000     Re =     1.005 e 6     Ncrit =   9.000
  
   alpha    CL        CD       CDp       CM     Top_Xtr  Bot_Xtr
  ------ -------- --------- --------- -------- -------- --------
   0.000   0.2442   0.00568   0.00121  -0.0525   0.6611   0.6586
   1.000   0.3470   0.00547   0.00140  -0.0499   0.5856   0.8651
   2.000   0.4548   0.00580   0.00168  -0.0482   0.5223   0.9642
   3.000   0.5942   0.00638   0.00200  -0.0542   0.4569   0.9943
   4.000   0.7154   0.00710   0.00236  -0.0566   0.3692   1.0000
   5.000   0.8090   0.00804   0.00291  -0.0531   0.2799   1.0000
   6.000   0.9017   0.00944   0.00381  -0.0497   0.1758   1.0000
   7.000   0.9944   0.01113   0.00503  -0.0467   0.0890   1.0000
   8.000   1.0886   0.01269   0.00641  -0.0440   0.0540   1.0000
   9.000   1.1802   0.01434   0.00804  -0.0409   0.0418   1.0000
  10.000   1.2698   0.01589   0.00968  -0.0378   0.0367   1.0000
  11.000   1.3503   0.01776   0.01170  -0.0334   0.0323   1.0000
  12.000   1.4120   0.02011   0.01419  -0.0263   0.0283   1.0000
  13.000   1.4700   0.02281   0.01703  -0.0201   0.0244   1.0000
  14.000   1.5234   0.02615   0.02057  -0.0148   0.0212   1.0000
  15.000   1.5605   0.03132   0.02597  -0.0101   0.0180   1.0000
  16.000   1.5784   0.03924   0.03416  -0.0073   0.0155   1.0000
  17.000   1.5792   0.05027   0.04553  -0.0073   0.0139   1.0000
  18.000   1.5434   0.06776   0.06345  -0.0114   0.0128   1.0000
  19.000   1.4960   0.08861   0.08476  -0.0187   0.0122   1.0000
  20.000   1.4273   0.11446   0.11108  -0.0297   0.0117   1.0000
