  
       XFOIL         Version 6.99
  
 Calculated polar for: NACA2412                                        
  
 1 1 Reynolds number fixed          Mach number fixed         
  
 xtrf =   1.000 (top)        1.000 (bottom)  
 Mach =   0.000     Re =     0.604 e 6     Ncrit =   9.000
  
   alpha    CL        CD       CDp       CM     Top_Xtr  Bot_Xtr
  ------ -------- --------- --------- -------- -------- --------
   0.000   0.2394   0.00605   0.00171  -0.0514   0.7199   0.7925
   1.000   0.3426   0.00616   0.00194  -0.0480   0.6484   0.9470
   2.000   0.4857   0.00676   0.00218  -0.0544   0.5704   0.9898
   3.000   0.6151   0.00731   0.00244  -0.0585   0.5020   1.0000
   4.000   0.7102   0.00792   0.00279  -0.0551   0.4334   1.0000
   5.000   0.8045   0.00882   0.00334  -0.0517   0.3464   1.0000
   7.000   0.9870   0.01215   0.00564  -0.0450   0.1255   1.0000
   8.000   1.0737   0.01432   0.00749  -0.0412   0.0669   1.0000
   9.000   1.1596   0.01631   0.00949  -0.0374   0.0515   1.0000
  10.000   1.2388   0.01845   0.01177  -0.0327   0.0441   1.0000
  11.000   1.2998   0.02107   0.01459  -0.0254   0.0388   1.0000
  12.000   1.3457   0.02470   0.01842  -0.0177   0.0341   1.0000
  13.000   1.3940   0.02862   0.02256  -0.0123   0.0300   1.0000
  14.000   1.4257   0.03463   0.02891  -0.0080   0.0263   1.0000
  15.000   1.4403   0.04334   0.03793  -0.0059   0.0233   1.0000
  16.000   1.4505   0.05386   0.04882  -0.0068   0.0208   1.0000
  17.000   1.4280   0.06980   0.06517  -0.0106   0.0191   1.0000
  18.000   1.4020   0.08785   0.08367  -0.0171   0.0176   1.0000
  19.000   1.3591   0.10969   0.10587  -0.0263   0.0166   1.0000
  20.000   1.3094   0.13394   0.13056  -0.0382   0.0157   1.0000
