  
       XFOIL         Version 6.99
  
 Calculated polar for: NACA2412                                        
  
 1 1 Reynolds number fixed          Mach number fixed         
  
 xtrf =   1.000 (top)        1.000 (bottom)  
 Mach =   0.000     Re =     1.105 e 6     Ncrit =   9.000
  
   alpha    CL        CD       CDp       CM     Top_Xtr  Bot_Xtr
  ------ -------- --------- --------- -------- -------- --------
   0.000   0.2446   0.00563   0.00115  -0.0525   0.6496   0.6357
   1.000   0.3487   0.00543   0.00132  -0.0505   0.5733   0.8429
   2.000   0.4535   0.00565   0.00160  -0.0481   0.5134   0.9555
   3.000   0.5879   0.00621   0.00191  -0.0528   0.4487   0.9922
   4.000   0.7166   0.00698   0.00230  -0.0569   0.3586   1.0000
   5.000   0.8097   0.00794   0.00286  -0.0533   0.2670   1.0000
   6.000   0.9025   0.00931   0.00374  -0.0500   0.1659   1.0000
   7.000   0.9958   0.01095   0.00493  -0.0470   0.0846   1.0000
   8.000   1.0907   0.01246   0.00626  -0.0444   0.0515   1.0000
   9.000   1.1842   0.01396   0.00777  -0.0416   0.0408   1.0000
  10.000   1.2726   0.01564   0.00951  -0.0383   0.0350   1.0000
  11.000   1.3577   0.01723   0.01123  -0.0346   0.0314   1.0000
  12.000   1.4244   0.01934   0.01349  -0.0281   0.0276   1.0000
  13.000   1.4817   0.02201   0.01629  -0.0215   0.0237   1.0000
  14.000   1.5358   0.02520   0.01963  -0.0160   0.0202   1.0000
  15.000   1.5775   0.02982   0.02445  -0.0111   0.0171   1.0000
  16.000   1.5994   0.03705   0.03197  -0.0078   0.0148   1.0000
  17.000   1.5915   0.04880   0.04404  -0.0072   0.0130   1.0000
  18.000   1.5754   0.06330   0.05896  -0.0101   0.0121   1.0000
  19.000   1.5289   0.08355   0.07966  -0.0167   0.0114   1.0000
  20.000   1.4543   0.10991   0.10649  -0.0277   0.0110   1.0000
