  
       XFOIL         Version 6.99
  
 Calculated polar for: NACA2412                                        
  
 1 1 Reynolds number fixed          Mach number fixed         
  
 xtrf =   1.000 (top)        1.000 (bottom)  
 Mach =   0.000     Re =     0.905 e 6     Ncrit =   9.000
  
   alpha    CL        CD       CDp       CM     Top_Xtr  Bot_Xtr
  ------ -------- --------- --------- -------- -------- --------
   0.000   0.2436   0.00573   0.00129  -0.0523   0.6735   0.6837
   1.000   0.3450   0.00555   0.00149  -0.0493   0.5989   0.8868
   2.000   0.4573   0.00596   0.00176  -0.0486   0.5322   0.9726
   3.000   0.6029   0.00655   0.00208  -0.0560   0.4651   0.9962
   4.000   0.7141   0.00725   0.00243  -0.0563   0.3816   1.0000
   5.000   0.8082   0.00816   0.00298  -0.0528   0.2939   1.0000
   6.000   0.9009   0.00958   0.00389  -0.0495   0.1874   1.0000
   7.000   0.9926   0.01136   0.00516  -0.0463   0.0940   1.0000
   8.000   1.0857   0.01300   0.00661  -0.0435   0.0562   1.0000
   9.000   1.1775   0.01460   0.00821  -0.0405   0.0442   1.0000
  10.000   1.2645   0.01633   0.01005  -0.0369   0.0381   1.0000
  11.000   1.3402   0.01844   0.01230  -0.0318   0.0334   1.0000
  12.000   1.3957   0.02113   0.01513  -0.0241   0.0289   1.0000
  13.000   1.4591   0.02359   0.01778  -0.0188   0.0256   1.0000
  14.000   1.5045   0.02764   0.02205  -0.0132   0.0221   1.0000
  15.000   1.5368   0.03351   0.02816  -0.0090   0.0190   1.0000
  16.000   1.5541   0.04185   0.03675  -0.0070   0.0164   1.0000
  17.000   1.5520   0.05368   0.04899  -0.0078   0.0148   1.0000
  18.000   1.5218   0.07080   0.06649  -0.0123   0.0136   1.0000
  19.000   1.4534   0.09531   0.09148  -0.0215   0.0129   1.0000
  20.000   1.3908   0.12069   0.11735  -0.0327   0.0125   1.0000
