  
       XFOIL         Version 6.99
  
 Calculated polar for: NACA2412                                        
  
 1 1 Reynolds number fixed          Mach number fixed         
  
 xtrf =   1.000 (top)        1.000 (bottom)  
 Mach =   0.000     Re =     0.605 e 6     Ncrit =   9.000
  
   alpha    CL        CD       CDp       CM     Top_Xtr  Bot_Xtr
  ------ -------- --------- --------- -------- -------- --------
   0.000   0.2394   0.00605   0.00171  -0.0514   0.7198   0.7920
   1.000   0.3426   0.00616   0.00194  -0.0480   0.6482   0.9468
   2.000   0.4856   0.00675   0.00217  -0.0544   0.5702   0.9898
   3.000   0.6151   0.00731   0.00243  -0.0585   0.5018   1.0000
   4.000   0.7102   0.00792   0.00278  -0.0551   0.4332   1.0000
   5.000   0.8045   0.00881   0.00334  -0.0517   0.3463   1.0000
   6.000   0.8977   0.01020   0.00425  -0.0485   0.2380   1.0000
   7.000   0.9871   0.01215   0.00564  -0.0451   0.1253   1.0000
   8.000   1.0738   0.01431   0.00749  -0.0413   0.0668   1.0000
   9.000   1.1596   0.01630   0.00949  -0.0374   0.0515   1.0000
  10.000   1.2389   0.01844   0.01176  -0.0327   0.0440   1.0000
  11.000   1.3000   0.02105   0.01457  -0.0255   0.0387   1.0000
  12.000   1.3460   0.02467   0.01839  -0.0177   0.0341   1.0000
  13.000   1.3942   0.02860   0.02255  -0.0123   0.0299   1.0000
  14.000   1.4260   0.03459   0.02887  -0.0080   0.0263   1.0000
  15.000   1.4408   0.04329   0.03788  -0.0059   0.0233   1.0000
  16.000   1.4509   0.05381   0.04877  -0.0068   0.0208   1.0000
  17.000   1.4286   0.06973   0.06511  -0.0106   0.0191   1.0000
  18.000   1.4025   0.08778   0.08360  -0.0171   0.0176   1.0000
  19.000   1.3593   0.10966   0.10584  -0.0263   0.0165   1.0000
  20.000   1.3097   0.13391   0.13054  -0.0382   0.0157   1.0000
