  
       XFOIL         Version 6.99
  
 Calculated polar for: NACA2412                                        
  
 1 1 Reynolds number fixed          Mach number fixed         
  
 xtrf =   1.000 (top)        1.000 (bottom)  
 Mach =   0.000     Re =     1.204 e 6     Ncrit =   9.000
  
   alpha    CL        CD       CDp       CM     Top_Xtr  Bot_Xtr
  ------ -------- --------- --------- -------- -------- --------
   0.000   0.2449   0.00560   0.00110  -0.0525   0.6387   0.6149
   1.000   0.3503   0.00538   0.00126  -0.0509   0.5627   0.8200
   2.000   0.4541   0.00554   0.00154  -0.0483   0.5056   0.9450
   3.000   0.5827   0.00608   0.00185  -0.0518   0.4413   0.9898
   4.000   0.7176   0.00688   0.00225  -0.0572   0.3480   1.0000
   5.000   0.8103   0.00785   0.00281  -0.0535   0.2554   1.0000
   6.000   0.9033   0.00919   0.00368  -0.0502   0.1579   1.0000
   7.000   0.9971   0.01079   0.00485  -0.0473   0.0801   1.0000
   8.000   1.0926   0.01226   0.00614  -0.0447   0.0491   1.0000
   9.000   1.1878   0.01362   0.00752  -0.0423   0.0400   1.0000
  10.000   1.2773   0.01525   0.00921  -0.0390   0.0343   1.0000
  11.000   1.3628   0.01685   0.01090  -0.0354   0.0304   1.0000
  12.000   1.4344   0.01873   0.01293  -0.0297   0.0269   1.0000
  13.000   1.4945   0.02117   0.01550  -0.0231   0.0232   1.0000
  14.000   1.5469   0.02437   0.01884  -0.0170   0.0196   1.0000
  15.000   1.5868   0.02900   0.02364  -0.0118   0.0161   1.0000
  16.000   1.6146   0.03551   0.03041  -0.0082   0.0141   1.0000
  17.000   1.6150   0.04600   0.04125  -0.0070   0.0125   1.0000
  18.000   1.5992   0.06007   0.05570  -0.0092   0.0115   1.0000
  19.000   1.5475   0.08075   0.07681  -0.0158   0.0108   1.0000
  20.000   1.4601   0.10901   0.10559  -0.0274   0.0103   1.0000
