  
       XFOIL         Version 6.99
  
 Calculated polar for: NACA2412                                        
  
 1 1 Reynolds number fixed          Mach number fixed         
  
 xtrf =   1.000 (top)        1.000 (bottom)  
 Mach =   0.000     Re =     0.805 e 6     Ncrit =   9.000
  
   alpha    CL        CD       CDp       CM     Top_Xtr  Bot_Xtr
  ------ -------- --------- --------- -------- -------- --------
   0.000   0.2427   0.00581   0.00139  -0.0522   0.6874   0.7121
   1.000   0.3428   0.00568   0.00160  -0.0486   0.6136   0.9080
   2.000   0.4630   0.00617   0.00187  -0.0497   0.5429   0.9790
   3.000   0.6130   0.00679   0.00219  -0.0582   0.4745   0.9989
   4.000   0.7128   0.00743   0.00252  -0.0559   0.3965   1.0000
   5.000   0.8073   0.00832   0.00307  -0.0525   0.3096   1.0000
   6.000   0.9001   0.00974   0.00398  -0.0492   0.2012   1.0000
   7.000   0.9911   0.01157   0.00528  -0.0460   0.1019   1.0000
   8.000   1.0818   0.01342   0.00689  -0.0427   0.0582   1.0000
   9.000   1.1729   0.01504   0.00855  -0.0396   0.0462   1.0000
  10.000   1.2568   0.01697   0.01058  -0.0356   0.0396   1.0000
  11.000   1.3253   0.01935   0.01309  -0.0294   0.0344   1.0000
  12.000   1.3901   0.02156   0.01548  -0.0232   0.0306   1.0000
  13.000   1.4396   0.02500   0.01915  -0.0166   0.0268   1.0000
  14.000   1.4795   0.02971   0.02408  -0.0113   0.0232   1.0000
  15.000   1.5099   0.03611   0.03072  -0.0079   0.0200   1.0000
  16.000   1.5292   0.04465   0.03960  -0.0067   0.0177   1.0000
  17.000   1.5127   0.05878   0.05409  -0.0088   0.0159   1.0000
  18.000   1.4860   0.07594   0.07171  -0.0139   0.0147   1.0000
  19.000   1.4344   0.09821   0.09442  -0.0224   0.0140   1.0000
  20.000   1.3647   0.12511   0.12174  -0.0347   0.0134   1.0000
