  
       XFOIL         Version 6.99
  
 Calculated polar for: NACA2412                                        
  
 1 1 Reynolds number fixed          Mach number fixed         
  
 xtrf =   1.000 (top)        1.000 (bottom)  
 Mach =   0.000     Re =     0.505 e 6     Ncrit =   9.000
  
   alpha    CL        CD       CDp       CM     Top_Xtr  Bot_Xtr
  ------ -------- --------- --------- -------- -------- --------
   0.000   0.2362   0.00629   0.00200  -0.0505   0.7393   0.8441
   1.000   0.3498   0.00658   0.00220  -0.0493   0.6690   0.9629
   2.000   0.5050   0.00717   0.00239  -0.0584   0.5878   0.9961
   3.000   0.6137   0.00768   0.00262  -0.0581   0.5219   1.0000
   4.000   0.7087   0.00831   0.00299  -0.0547   0.4543   1.0000
   5.000   0.8031   0.00918   0.00355  -0.0513   0.3680   1.0000
   6.000   0.8964   0.01051   0.00445  -0.0481   0.2625   1.0000
   7.000   0.9844   0.01255   0.00589  -0.0444   0.1433   1.0000
   8.000   1.0681   0.01495   0.00791  -0.0402   0.0729   1.0000
   9.000   1.1501   0.01721   0.01021  -0.0357   0.0557   1.0000
  10.000   1.2226   0.01972   0.01287  -0.0301   0.0475   1.0000
  11.000   1.2724   0.02300   0.01629  -0.0216   0.0413   1.0000
  12.000   1.3294   0.02607   0.01964  -0.0158   0.0367   1.0000
  13.000   1.3645   0.03127   0.02514  -0.0097   0.0324   1.0000
  14.000   1.3858   0.03853   0.03265  -0.0057   0.0286   1.0000
  15.000   1.4083   0.04683   0.04133  -0.0048   0.0253   1.0000
  16.000   1.4028   0.05935   0.05427  -0.0061   0.0229   1.0000
  17.000   1.3918   0.07424   0.06957  -0.0104   0.0209   1.0000
  18.000   1.3588   0.09318   0.08889  -0.0171   0.0195   1.0000
  19.000   1.3188   0.11531   0.11157  -0.0273   0.0183   1.0000
  20.000   1.2792   0.13880   0.13547  -0.0398   0.0172   1.0000
