  
       XFOIL         Version 6.99
  
 Calculated polar for: NACA2412                                        
  
 1 1 Reynolds number fixed          Mach number fixed         
  
 xtrf =   1.000 (top)        1.000 (bottom)  
 Mach =   0.000     Re =     1.205 e 6     Ncrit =   9.000
  
   alpha    CL        CD       CDp       CM     Top_Xtr  Bot_Xtr
  ------ -------- --------- --------- -------- -------- --------
   0.000   0.2449   0.00560   0.00110  -0.0525   0.6386   0.6147
   1.000   0.3503   0.00538   0.00126  -0.0509   0.5626   0.8197
   2.000   0.4541   0.00554   0.00154  -0.0483   0.5056   0.9449
   3.000   0.5827   0.00607   0.00185  -0.0517   0.4412   0.9898
   4.000   0.7176   0.00688   0.00225  -0.0572   0.3479   1.0000
   5.000   0.8103   0.00785   0.00281  -0.0535   0.2553   1.0000
   6.000   0.9033   0.00919   0.00368  -0.0502   0.1578   1.0000
   7.000   0.9971   0.01079   0.00484  -0.0473   0.0801   1.0000
   8.000   1.0926   0.01225   0.00613  -0.0447   0.0491   1.0000
   9.000   1.1879   0.01362   0.00752  -0.0423   0.0400   1.0000
  10.000   1.2773   0.01525   0.00921  -0.0390   0.0343   1.0000
  11.000   1.3629   0.01685   0.01089  -0.0354   0.0304   1.0000
  12.000   1.4345   0.01873   0.01293  -0.0297   0.0269   1.0000
  13.000   1.4946   0.02116   0.01549  -0.0231   0.0232   1.0000
  14.000   1.5471   0.02436   0.01883  -0.0171   0.0195   1.0000
  15.000   1.5869   0.02899   0.02363  -0.0118   0.0161   1.0000
  16.000   1.6147   0.03550   0.03040  -0.0082   0.0141   1.0000
  17.000   1.6152   0.04598   0.04122  -0.0070   0.0125   1.0000
  18.000   1.5994   0.06004   0.05567  -0.0092   0.0115   1.0000
  19.000   1.5476   0.08074   0.07680  -0.0158   0.0107   1.0000
  20.000   1.4606   0.10894   0.10551  -0.0274   0.0103   1.0000
