  
       XFOIL         Version 6.99
  
 Calculated polar for: NACA2412                                        
  
 1 1 Reynolds number fixed          Mach number fixed         
  
 xtrf =   1.000 (top)        1.000 (bottom)  
 Mach =   0.000     Re =     0.804 e 6     Ncrit =   9.000
  
   alpha    CL        CD       CDp       CM     Top_Xtr  Bot_Xtr
  ------ -------- --------- --------- -------- -------- --------
   0.000   0.2427   0.00581   0.00139  -0.0522   0.6875   0.7124
   1.000   0.3428   0.00568   0.00160  -0.0486   0.6138   0.9082
   2.000   0.4631   0.00617   0.00187  -0.0497   0.5431   0.9791
   3.000   0.6132   0.00679   0.00219  -0.0582   0.4746   0.9989
   4.000   0.7128   0.00743   0.00252  -0.0559   0.3967   1.0000
   5.000   0.8072   0.00832   0.00307  -0.0525   0.3098   1.0000
   6.000   0.9000   0.00974   0.00398  -0.0492   0.2013   1.0000
   7.000   0.9910   0.01158   0.00528  -0.0460   0.1020   1.0000
   8.000   1.0817   0.01343   0.00689  -0.0427   0.0582   1.0000
   9.000   1.1729   0.01505   0.00856  -0.0396   0.0463   1.0000
  10.000   1.2567   0.01697   0.01059  -0.0356   0.0396   1.0000
  11.000   1.3251   0.01936   0.01310  -0.0294   0.0344   1.0000
  12.000   1.3899   0.02157   0.01549  -0.0232   0.0306   1.0000
  13.000   1.4394   0.02501   0.01917  -0.0166   0.0268   1.0000
  14.000   1.4792   0.02973   0.02410  -0.0113   0.0232   1.0000
  15.000   1.5098   0.03612   0.03073  -0.0079   0.0201   1.0000
  16.000   1.5289   0.04469   0.03964  -0.0067   0.0177   1.0000
  17.000   1.5122   0.05884   0.05416  -0.0088   0.0159   1.0000
  18.000   1.4855   0.07600   0.07177  -0.0139   0.0148   1.0000
  19.000   1.4340   0.09827   0.09447  -0.0224   0.0140   1.0000
  20.000   1.3647   0.12513   0.12175  -0.0347   0.0134   1.0000
