  
       XFOIL         Version 6.99
  
 Calculated polar for: NACA2412                                        
  
 1 1 Reynolds number fixed          Mach number fixed         
  
 xtrf =   1.000 (top)        1.000 (bottom)  
 Mach =   0.000     Re =     1.004 e 6     Ncrit =   9.000
  
   alpha    CL        CD       CDp       CM     Top_Xtr  Bot_Xtr
  ------ -------- --------- --------- -------- -------- --------
   0.000   0.2442   0.00568   0.00121  -0.0525   0.6612   0.6588
   1.000   0.3469   0.00547   0.00140  -0.0499   0.5858   0.8654
   2.000   0.4548   0.00580   0.00168  -0.0482   0.5224   0.9643
   3.000   0.5943   0.00638   0.00200  -0.0542   0.4569   0.9943
   4.000   0.7154   0.00710   0.00236  -0.0566   0.3693   1.0000
   5.000   0.8090   0.00804   0.00291  -0.0531   0.2800   1.0000
   6.000   0.9017   0.00944   0.00381  -0.0497   0.1758   1.0000
   7.000   0.9944   0.01113   0.00503  -0.0467   0.0891   1.0000
   8.000   1.0886   0.01269   0.00641  -0.0440   0.0540   1.0000
   9.000   1.1801   0.01434   0.00804  -0.0409   0.0418   1.0000
  10.000   1.2697   0.01589   0.00968  -0.0378   0.0367   1.0000
  11.000   1.3503   0.01777   0.01171  -0.0334   0.0323   1.0000
  12.000   1.4118   0.02012   0.01420  -0.0263   0.0283   1.0000
  13.000   1.4699   0.02282   0.01703  -0.0201   0.0245   1.0000
  14.000   1.5232   0.02616   0.02058  -0.0148   0.0212   1.0000
  15.000   1.5603   0.03134   0.02599  -0.0101   0.0180   1.0000
  16.000   1.5782   0.03926   0.03418  -0.0073   0.0156   1.0000
  17.000   1.5790   0.05030   0.04555  -0.0073   0.0139   1.0000
  18.000   1.5430   0.06781   0.06350  -0.0115   0.0128   1.0000
  19.000   1.4956   0.08867   0.08482  -0.0187   0.0122   1.0000
  20.000   1.4270   0.11451   0.11114  -0.0297   0.0117   1.0000
